*SPEF "ieee 1481-1999"
*DESIGN "ALU"
*DATE "02:09:51 Monday April 13, 2026"
*VENDOR "The OpenROAD Project"
*PROGRAM "OpenROAD"
*VERSION "26Q1-2966-g29d97c45b3"
*DESIGN_FLOW "NAME_SCOPE LOCAL" "PIN_CAP NONE"
*DIVIDER /
*DELIMITER :
*BUS_DELIMITER []
*T_UNIT 1 NS
*C_UNIT 1 PF
*R_UNIT 1 OHM
*L_UNIT 1 HENRY

*NAME_MAP
*1 _0000_
*2 _0001_
*3 _0002_
*4 _0003_
*5 _0004_
*6 _0005_
*7 _0006_
*8 _0007_
*9 _0008_
*10 _0009_
*11 _0010_
*12 _0011_
*13 _0012_
*14 _0013_
*15 _0014_
*16 _0015_
*17 _0016_
*18 _0017_
*19 _0018_
*20 _0019_
*21 _0020_
*22 _0021_
*23 _0022_
*24 _0023_
*25 _0024_
*26 _0025_
*27 _0026_
*28 _0027_
*29 _0028_
*30 _0029_
*31 _0030_
*32 _0031_
*33 _0032_
*34 _0033_
*35 _0034_
*36 _0035_
*37 _0036_
*38 _0037_
*39 _0038_
*40 _0039_
*41 _0040_
*42 _0041_
*43 _0042_
*44 _0043_
*45 _0044_
*46 _0045_
*47 _0046_
*48 _0047_
*49 _0048_
*50 _0049_
*51 _0050_
*52 _0051_
*53 _0052_
*54 _0053_
*55 _0054_
*56 _0055_
*57 _0056_
*58 _0057_
*59 _0058_
*60 _0059_
*61 _0060_
*62 _0061_
*63 _0062_
*64 _0063_
*65 _0064_
*66 _0065_
*67 _0066_
*68 _0067_
*69 _0068_
*70 _0069_
*71 _0070_
*72 _0071_
*73 _0072_
*74 _0073_
*75 _0074_
*76 _0075_
*77 _0076_
*78 _0077_
*79 _0078_
*80 _0079_
*81 _0080_
*82 _0081_
*83 _0082_
*84 _0083_
*85 _0084_
*86 _0085_
*87 _0086_
*88 _0087_
*89 _0088_
*90 _0089_
*91 _0090_
*92 _0091_
*93 _0092_
*94 _0093_
*95 _0094_
*96 _0095_
*97 _0096_
*98 _0097_
*99 _0098_
*100 _0099_
*101 _0100_
*102 _0101_
*103 _0102_
*104 _0103_
*105 _0104_
*106 _0105_
*107 _0106_
*108 _0107_
*109 _0108_
*110 _0109_
*111 _0110_
*112 _0111_
*113 _0112_
*114 _0113_
*115 _0114_
*116 _0115_
*117 _0116_
*118 _0117_
*119 _0118_
*120 _0119_
*121 _0120_
*122 _0121_
*123 _0122_
*124 _0123_
*125 _0124_
*126 _0125_
*127 _0126_
*128 _0127_
*129 _0128_
*130 _0129_
*131 _0130_
*132 _0131_
*133 _0132_
*134 _0133_
*135 _0134_
*136 _0135_
*137 _0136_
*138 _0137_
*139 _0138_
*140 _0139_
*141 _0140_
*142 _0141_
*143 _0142_
*144 _0143_
*145 _0144_
*146 _0145_
*147 _0146_
*148 _0147_
*149 _0148_
*150 _0149_
*151 _0150_
*152 _0151_
*153 _0152_
*154 _0153_
*155 _0154_
*156 _0155_
*157 _0156_
*158 _0157_
*159 _0158_
*160 _0159_
*161 _0160_
*162 _0161_
*163 _0162_
*164 _0163_
*165 _0164_
*166 _0165_
*167 _0166_
*168 _0167_
*169 _0168_
*170 _0169_
*171 _0170_
*172 _0171_
*173 _0172_
*174 _0173_
*175 _0174_
*176 _0175_
*177 _0176_
*178 _0177_
*179 _0178_
*180 _0179_
*181 _0180_
*182 _0181_
*183 _0182_
*184 _0183_
*185 _0184_
*186 _0185_
*187 _0186_
*188 _0187_
*189 _0188_
*190 _0189_
*191 _0190_
*192 _0191_
*193 _0192_
*194 _0193_
*195 _0194_
*196 _0195_
*197 _0196_
*198 _0197_
*199 _0198_
*200 _0199_
*201 _0200_
*202 _0201_
*203 _0202_
*204 _0203_
*205 _0204_
*206 _0205_
*207 _0206_
*208 _0207_
*209 _0208_
*210 _0209_
*211 _0210_
*212 _0211_
*213 _0212_
*214 _0213_
*215 _0214_
*216 _0215_
*217 _0216_
*218 _0217_
*219 _0218_
*220 _0219_
*221 _0220_
*222 _0221_
*223 _0222_
*224 _0223_
*225 _0224_
*226 _0225_
*227 _0226_
*228 _0227_
*229 _0228_
*230 _0229_
*231 _0230_
*232 _0231_
*233 _0232_
*234 _0233_
*235 _0234_
*236 _0235_
*237 _0236_
*238 _0237_
*239 _0238_
*240 _0239_
*241 _0240_
*242 _0241_
*243 _0242_
*244 _0243_
*245 _0244_
*246 _0245_
*247 _0246_
*248 io_b[2]
*249 _0248_
*250 _0249_
*251 _0250_
*252 io_b[29]
*253 io_b[28]
*254 _0253_
*255 io_b[27]
*256 _0255_
*257 _0256_
*258 _0257_
*259 _0258_
*260 _0259_
*261 _0260_
*262 _0261_
*263 _0262_
*264 _0263_
*265 io_b[26]
*266 _0265_
*267 io_b[25]
*268 io_b[24]
*269 io_b[23]
*270 _0269_
*271 io_b[22]
*272 _0271_
*273 _0272_
*274 io_b[21]
*275 io_b[20]
*276 io_b[1]
*277 io_b[19]
*278 _0277_
*279 io_b[18]
*280 io_b[17]
*281 _0280_
*282 _0281_
*283 _0282_
*284 _0283_
*285 _0284_
*286 _0285_
*287 _0286_
*288 _0287_
*289 _0288_
*290 io_b[16]
*291 io_b[15]
*292 io_b[14]
*293 io_b[13]
*294 io_b[12]
*295 _0294_
*296 _0295_
*297 _0296_
*298 _0297_
*299 io_b[11]
*300 _0299_
*301 _0300_
*302 io_b[10]
*303 _0302_
*304 _0303_
*305 _0304_
*306 io_b[0]
*307 _0306_
*308 _0307_
*309 _0308_
*310 _0309_
*311 _0310_
*312 _0311_
*313 _0312_
*314 _0313_
*315 _0314_
*316 _0315_
*317 _0316_
*318 _0317_
*319 io_a[9]
*320 _0319_
*321 _0320_
*322 _0321_
*323 io_a[8]
*324 io_a[7]
*325 _0324_
*326 io_a[6]
*327 io_a[5]
*328 _0327_
*329 _0328_
*330 _0329_
*331 _0330_
*332 _0331_
*333 _0332_
*334 _0333_
*335 io_a[4]
*336 _0335_
*337 _0336_
*338 _0337_
*339 _0338_
*340 io_a[3]
*341 _0340_
*342 _0341_
*343 _0342_
*344 _0343_
*345 io_a[31]
*346 _0345_
*347 io_a[30]
*348 io_a[2]
*349 _0348_
*350 io_a[29]
*351 _0350_
*352 _0351_
*353 io_a[28]
*354 _0353_
*355 io_a[27]
*356 _0355_
*357 _0356_
*358 _0357_
*359 io_a[26]
*360 io_a[25]
*361 _0360_
*362 _0361_
*363 _0362_
*364 _0363_
*365 _0364_
*366 _0365_
*367 _0366_
*368 _0367_
*369 _0368_
*370 _0369_
*371 _0370_
*372 _0371_
*373 _0372_
*374 _0373_
*375 _0374_
*376 _0375_
*377 _0376_
*378 _0377_
*379 _0378_
*380 _0379_
*381 _0380_
*382 _0381_
*383 _0382_
*384 _0383_
*385 _0384_
*386 _0385_
*387 _0386_
*388 _0387_
*389 _0388_
*390 _0389_
*391 _0390_
*392 _0391_
*393 _0392_
*394 _0393_
*395 _0394_
*396 _0395_
*397 _0396_
*398 _0397_
*399 _0398_
*400 io_a[24]
*401 _0400_
*402 _0401_
*403 _0402_
*404 _0403_
*405 _0404_
*406 _0405_
*407 _0406_
*408 _0407_
*409 _0408_
*410 _0409_
*411 _0410_
*412 _0411_
*413 _0412_
*414 _0413_
*415 _0414_
*416 _0415_
*417 _0416_
*418 io_a[23]
*419 _0418_
*420 _0419_
*421 _0420_
*422 _0421_
*423 _0422_
*424 _0423_
*425 _0424_
*426 _0425_
*427 _0426_
*428 _0427_
*429 _0428_
*430 _0429_
*431 _0430_
*432 _0431_
*433 _0432_
*434 _0433_
*435 _0434_
*436 _0435_
*437 _0436_
*438 _0437_
*439 _0438_
*440 _0439_
*441 _0440_
*442 _0441_
*443 _0442_
*444 _0443_
*445 _0444_
*446 _0445_
*447 _0446_
*448 _0447_
*449 _0448_
*450 _0449_
*451 _0450_
*452 _0451_
*453 _0452_
*454 _0453_
*455 _0454_
*456 _0455_
*457 _0456_
*458 io_a[22]
*459 io_a[21]
*460 _0459_
*461 _0460_
*462 _0461_
*463 _0462_
*464 _0463_
*465 _0464_
*466 _0465_
*467 _0466_
*468 _0467_
*469 _0468_
*470 _0469_
*471 _0470_
*472 _0471_
*473 _0472_
*474 _0473_
*475 _0474_
*476 _0475_
*477 _0476_
*478 _0477_
*479 _0478_
*480 _0479_
*481 _0480_
*482 _0481_
*483 _0482_
*484 _0483_
*485 io_a[20]
*486 _0485_
*487 _0486_
*488 _0487_
*489 _0488_
*490 _0489_
*491 _0490_
*492 _0491_
*493 _0492_
*494 _0493_
*495 _0494_
*496 _0495_
*497 _0496_
*498 _0497_
*499 _0498_
*500 _0499_
*501 _0500_
*502 _0501_
*503 _0502_
*504 _0503_
*505 _0504_
*506 _0505_
*507 _0506_
*508 _0507_
*509 _0508_
*510 _0509_
*511 _0510_
*512 _0511_
*513 _0512_
*514 _0513_
*515 io_a[1]
*516 io_a[19]
*517 _0516_
*518 _0517_
*519 _0518_
*520 _0519_
*521 _0520_
*522 _0521_
*523 _0522_
*524 _0523_
*525 _0524_
*526 _0525_
*527 _0526_
*528 _0527_
*529 _0528_
*530 _0529_
*531 _0530_
*532 _0531_
*533 _0532_
*534 _0533_
*535 _0534_
*536 _0535_
*537 _0536_
*538 _0537_
*539 _0538_
*540 _0539_
*541 _0540_
*542 _0541_
*543 _0542_
*544 _0543_
*545 _0544_
*546 _0545_
*547 _0546_
*548 _0547_
*549 _0548_
*550 io_a[18]
*551 _0550_
*552 _0551_
*553 _0552_
*554 _0553_
*555 _0554_
*556 io_a[17]
*557 io_a[16]
*558 io_a[15]
*559 _0558_
*560 _0559_
*561 io_a[14]
*562 _0561_
*563 _0562_
*564 _0563_
*565 _0564_
*566 _0565_
*567 _0566_
*568 _0567_
*569 _0568_
*570 _0569_
*571 _0570_
*572 _0571_
*573 _0572_
*574 _0573_
*575 _0574_
*576 _0575_
*577 _0576_
*578 _0577_
*579 _0578_
*580 _0579_
*581 _0580_
*582 _0581_
*583 _0582_
*584 _0583_
*585 _0584_
*586 _0585_
*587 _0586_
*588 _0587_
*589 _0588_
*590 _0589_
*591 _0590_
*592 _0591_
*593 io_a[13]
*594 _0593_
*595 _0594_
*596 _0595_
*597 _0596_
*598 _0597_
*599 _0598_
*600 io_a[12]
*601 _0600_
*602 _0601_
*603 _0602_
*604 _0603_
*605 _0604_
*606 _0605_
*607 _0606_
*608 _0607_
*609 _0608_
*610 _0609_
*611 _0610_
*612 _0611_
*613 _0612_
*614 _0613_
*615 _0614_
*616 _0615_
*617 _0616_
*618 _0617_
*619 _0618_
*620 _0619_
*621 _0620_
*622 _0621_
*623 _0622_
*624 _0623_
*625 _0624_
*626 _0625_
*627 _0626_
*628 _0627_
*629 _0628_
*630 io_a[11]
*631 _0630_
*632 _0631_
*633 _0632_
*634 io_a[10]
*635 _0634_
*636 io_a[0]
*637 _0636_
*638 _0637_
*639 _0638_
*640 _0639_
*641 _0640_
*642 _0641_
*643 _0642_
*644 _0643_
*645 _0644_
*646 _0645_
*647 _0646_
*648 _0647_
*649 _0648_
*650 _0649_
*651 _0650_
*652 _0651_
*653 _0652_
*654 _0653_
*655 _0654_
*656 _0655_
*657 _0656_
*658 _0657_
*659 _0658_
*660 _0659_
*661 _0660_
*662 _0661_
*663 _0662_
*664 _0663_
*665 _0664_
*666 _0665_
*667 _0666_
*668 _0667_
*669 _0668_
*670 _0669_
*671 _0670_
*672 _0671_
*673 _0672_
*674 _0673_
*675 _0674_
*676 _0675_
*677 _0676_
*678 _0677_
*679 _0678_
*680 _0679_
*681 _0680_
*682 _0681_
*683 _0682_
*684 _0683_
*685 _0684_
*686 _0685_
*687 _0686_
*688 _0687_
*689 _0688_
*690 _0689_
*691 _0690_
*692 _0691_
*693 _0692_
*694 _0693_
*695 _0694_
*696 _0695_
*697 _0696_
*698 _0697_
*699 _0698_
*700 _0699_
*701 _0700_
*702 _0701_
*703 _0702_
*704 _0703_
*705 _0704_
*706 _0705_
*707 _0706_
*708 _0707_
*709 _0708_
*710 _0709_
*711 _0710_
*712 _0711_
*713 _0712_
*714 _0713_
*715 _0714_
*716 _0715_
*717 _0716_
*718 _0717_
*719 _0718_
*720 _0719_
*721 _0720_
*722 _0721_
*723 _0722_
*724 _0723_
*725 _0724_
*726 _0725_
*727 _0726_
*728 _0727_
*729 _0728_
*730 _0729_
*731 _0730_
*732 _0731_
*733 _0732_
*734 _0733_
*735 _0734_
*736 _0735_
*737 _0736_
*738 _0737_
*739 _0738_
*740 _0739_
*741 _0740_
*742 _0741_
*743 _0742_
*744 _0743_
*745 _0744_
*746 _0745_
*747 _0746_
*748 _0747_
*749 _0748_
*750 _0749_
*751 _0750_
*752 _0751_
*753 _0752_
*754 _0753_
*755 _0754_
*756 _0755_
*757 _0756_
*758 _0757_
*759 _0758_
*760 _0759_
*761 _0760_
*762 _0761_
*763 _0762_
*764 _0763_
*765 _0764_
*766 _0765_
*767 _0766_
*768 _0767_
*769 _0768_
*770 _0769_
*771 _0770_
*772 _0771_
*773 _0772_
*774 _0773_
*775 _0774_
*776 _0775_
*777 _0776_
*778 _0777_
*779 _0778_
*780 _0779_
*781 _0780_
*782 _0781_
*783 _0782_
*784 _0783_
*785 _0784_
*786 _0785_
*787 _0786_
*788 _0787_
*789 _0788_
*790 _0789_
*791 _0790_
*792 _0791_
*793 _0792_
*794 _0793_
*795 _0794_
*796 _0795_
*797 _0796_
*798 _0797_
*799 _0798_
*800 _0799_
*801 _0800_
*802 _0801_
*803 _0802_
*804 _0803_
*805 _0804_
*806 _0805_
*807 _0806_
*808 _0807_
*809 _0808_
*810 _0809_
*811 _0810_
*812 _0811_
*813 _0812_
*814 _0813_
*815 _0814_
*816 _0815_
*817 _0816_
*818 _0817_
*819 _0818_
*820 _0819_
*821 _0820_
*822 _0821_
*823 _0822_
*824 _0823_
*825 _0824_
*826 _0825_
*827 _0826_
*828 _0827_
*829 _0828_
*830 _0829_
*831 _0830_
*832 _0831_
*833 _0832_
*834 _0833_
*835 _0834_
*836 _0835_
*837 _0836_
*838 _0837_
*839 _0838_
*840 _0839_
*841 _0840_
*842 _0841_
*843 _0842_
*844 _0843_
*845 _0844_
*846 _0845_
*847 _0846_
*848 _0847_
*849 _0848_
*850 _0849_
*851 _0850_
*852 _0851_
*853 _0852_
*854 _0853_
*855 _0854_
*856 _0855_
*857 _0856_
*858 _0857_
*859 _0858_
*860 _0859_
*861 _0860_
*862 _0861_
*863 _0862_
*864 _0863_
*865 _0864_
*866 _0865_
*867 _0866_
*868 _0867_
*869 _0868_
*870 _0869_
*871 _0870_
*872 _0871_
*873 _0872_
*874 _0873_
*875 _0874_
*876 _0875_
*877 _0876_
*878 _0877_
*879 _0878_
*880 _0879_
*881 _0880_
*882 _0881_
*883 _0882_
*884 _0883_
*885 _0884_
*886 _0885_
*887 _0886_
*888 _0887_
*889 _0888_
*890 _0889_
*891 _0890_
*892 _0891_
*893 _0892_
*894 _0893_
*895 _0894_
*896 _0895_
*897 _0896_
*898 _0897_
*899 _0898_
*900 _0899_
*901 _0900_
*902 _0901_
*903 _0902_
*904 _0903_
*905 _0904_
*906 _0905_
*907 _0906_
*908 _0907_
*909 _0908_
*910 _0909_
*911 _0910_
*912 _0911_
*913 _0912_
*914 _0913_
*915 _0914_
*916 _0915_
*917 _0916_
*918 _0917_
*919 _0918_
*920 _0919_
*921 _0920_
*922 _0921_
*923 clock
*924 net1
*925 net2
*926 net3
*927 net4
*928 net5
*929 net6
*930 net7
*931 net8
*932 net9
*933 net10
*934 net11
*935 net12
*936 net13
*937 net14
*938 net15
*939 net16
*940 net17
*941 net18
*942 net19
*943 net20
*944 net21
*945 net22
*946 net23
*947 net24
*948 net25
*949 net26
*950 net27
*951 net28
*952 net29
*953 net30
*954 net31
*955 net32
*956 net33
*957 net34
*958 net35
*959 net36
*960 net37
*961 net38
*962 net39
*963 net40
*964 net41
*965 net42
*966 net43
*967 net44
*968 net45
*969 net46
*970 net47
*971 net48
*972 net49
*973 net50
*974 net51
*975 net52
*976 net53
*977 net54
*978 net55
*979 net56
*980 net57
*981 net58
*982 net59
*983 net60
*984 net61
*985 net62
*986 net63
*987 net64
*988 net65
*989 net66
*990 net67
*991 net68
*992 net69
*993 net70
*994 net71
*995 net72
*996 net73
*997 net74
*998 net75
*999 net76
*1000 net77
*1001 net78
*1002 net79
*1003 net80
*1004 net81
*1005 net82
*1006 net83
*1007 net84
*1008 net85
*1009 net86
*1010 net87
*1011 net88
*1012 net89
*1013 net90
*1014 net91
*1015 net92
*1016 net93
*1017 net94
*1018 net95
*1019 net96
*1020 net97
*1021 net98
*1022 net99
*1023 net100
*1024 reset
*1027 io_b[30]
*1028 io_b[31]
*1029 io_b[3]
*1030 io_b[4]
*1031 io_b[5]
*1032 io_b[6]
*1033 io_b[7]
*1034 io_b[8]
*1035 io_b[9]
*1036 io_op[0]
*1037 io_op[1]
*1038 io_op[2]
*1039 io_result[0]
*1040 io_result[10]
*1041 io_result[11]
*1042 io_result[12]
*1043 io_result[13]
*1044 io_result[14]
*1045 io_result[15]
*1046 io_result[16]
*1047 io_result[17]
*1048 io_result[18]
*1049 io_result[19]
*1050 io_result[1]
*1051 io_result[20]
*1052 io_result[21]
*1053 io_result[22]
*1054 io_result[23]
*1055 io_result[24]
*1056 io_result[25]
*1057 io_result[26]
*1058 io_result[27]
*1059 io_result[28]
*1060 io_result[29]
*1061 io_result[2]
*1062 io_result[30]
*1063 io_result[31]
*1064 io_result[3]
*1065 io_result[4]
*1066 io_result[5]
*1067 io_result[6]
*1068 io_result[7]
*1069 io_result[8]
*1070 io_result[9]
*1071 io_zero
*1072 net110
*1073 net112
*1074 net116
*1075 net117
*1076 net119
*1077 net120
*1078 net122
*1079 net124
*1081 net111
*1082 net113
*1083 net114
*1084 net115
*1085 net118
*1086 net121
*1087 net123
*1088 net125
*1089 net126
*1090 _0922_
*1091 _0923_
*1092 _0924_
*1093 _0925_
*1094 _0926_
*1095 _0927_
*1096 _0928_
*1097 _0929_
*1098 _0930_
*1099 _0931_
*1100 _0932_
*1101 _0933_
*1102 _0934_
*1103 _0935_
*1104 _0936_
*1105 _0937_
*1106 _0938_
*1107 _0939_
*1108 _0940_
*1109 _0941_
*1110 _0942_
*1111 _0943_
*1112 _0944_
*1113 _0945_
*1114 _0946_
*1115 _0947_
*1116 _0948_
*1117 _0949_
*1118 _0950_
*1119 _0951_
*1120 _0952_
*1121 _0953_
*1122 _0954_
*1123 _0955_
*1124 _0956_
*1125 _0957_
*1126 _0958_
*1127 _0959_
*1128 _0960_
*1129 _0961_
*1130 _0962_
*1131 _0963_
*1132 _0964_
*1133 _0965_
*1134 _0966_
*1135 _0967_
*1136 _0968_
*1137 _0969_
*1138 _0970_
*1139 _0971_
*1140 _0972_
*1141 _0973_
*1142 _0974_
*1143 _0975_
*1144 _0976_
*1145 input55
*1146 _0978_
*1147 _0979_
*1148 _0980_
*1149 input54
*1150 input53
*1151 _0983_
*1152 input52
*1153 _0985_
*1154 _0986_
*1155 _0987_
*1156 _0988_
*1157 _0989_
*1158 _0990_
*1159 _0991_
*1160 _0992_
*1161 _0993_
*1162 input51
*1163 _0995_
*1164 input50
*1165 input49
*1166 input48
*1167 _0999_
*1168 input47
*1169 _1001_
*1170 _1002_
*1171 input46
*1172 input45
*1173 input44
*1174 input43
*1175 _1007_
*1176 input42
*1177 input41
*1178 _1010_
*1179 _1011_
*1180 _1012_
*1181 _1013_
*1182 _1014_
*1183 _1015_
*1184 _1016_
*1185 _1017_
*1186 _1018_
*1187 input40
*1188 input39
*1189 input38
*1190 input37
*1191 input36
*1192 _1024_
*1193 _1025_
*1194 _1026_
*1195 _1027_
*1196 input35
*1197 _1029_
*1198 _1030_
*1199 input34
*1200 _1032_
*1201 _1033_
*1202 _1034_
*1203 input33
*1204 _1036_
*1205 _1037_
*1206 _1038_
*1207 _1039_
*1208 _1040_
*1209 _1041_
*1210 _1042_
*1211 _1043_
*1212 _1044_
*1213 _1045_
*1214 _1046_
*1215 _1047_
*1216 input32
*1217 _1049_
*1218 _1050_
*1219 _1051_
*1220 input31
*1221 input30
*1222 _1054_
*1223 input29
*1224 input28
*1225 _1057_
*1226 _1058_
*1227 _1059_
*1228 _1060_
*1229 _1061_
*1230 _1062_
*1231 _1063_
*1232 input27
*1233 _1065_
*1234 _1066_
*1235 _1067_
*1236 _1068_
*1237 input26
*1238 _1070_
*1239 _1071_
*1240 _1072_
*1241 _1073_
*1242 input25
*1243 _1075_
*1244 input24
*1245 input23
*1246 _1078_
*1247 input22
*1248 _1080_
*1249 _1081_
*1250 input21
*1251 _1083_
*1252 input20
*1253 _1085_
*1254 _1086_
*1255 _1087_
*1256 input19
*1257 input18
*1258 _1090_
*1259 _1091_
*1260 _1092_
*1261 _1093_
*1262 _1094_
*1263 _1095_
*1264 _1096_
*1265 _1097_
*1266 _1098_
*1267 _1099_
*1268 _1100_
*1269 _1101_
*1270 _1102_
*1271 _1103_
*1272 _1104_
*1273 _1105_
*1274 _1106_
*1275 _1107_
*1276 _1108_
*1277 _1109_
*1278 _1110_
*1279 _1111_
*1280 _1112_
*1281 _1113_
*1282 _1114_
*1283 _1115_
*1284 _1116_
*1285 _1117_
*1286 _1118_
*1287 _1119_
*1288 _1120_
*1289 _1121_
*1290 _1122_
*1291 _1123_
*1292 _1124_
*1293 _1125_
*1294 _1126_
*1295 _1127_
*1296 _1128_
*1297 input17
*1298 _1130_
*1299 _1131_
*1300 _1132_
*1301 _1133_
*1302 _1134_
*1303 _1135_
*1304 _1136_
*1305 _1137_
*1306 _1138_
*1307 _1139_
*1308 _1140_
*1309 _1141_
*1310 _1142_
*1311 _1143_
*1312 _1144_
*1313 _1145_
*1314 _1146_
*1315 _1147_
*1316 _1148_
*1317 input16
*1318 _1150_
*1319 _1151_
*1320 _1152_
*1321 _1153_
*1322 _1154_
*1323 _1155_
*1324 _1156_
*1325 _1157_
*1326 _1158_
*1327 _1159_
*1328 _1160_
*1329 _1161_
*1330 _1162_
*1331 _1163_
*1332 _1164_
*1333 _1165_
*1334 _1166_
*1335 _1167_
*1336 _1168_
*1337 _1169_
*1338 _1170_
*1339 _1171_
*1340 _1172_
*1341 _1173_
*1342 _1174_
*1343 _1175_
*1344 _1176_
*1345 _1177_
*1346 _1178_
*1347 _1179_
*1348 _1180_
*1349 _1181_
*1350 _1182_
*1351 _1183_
*1352 _1184_
*1353 _1185_
*1354 _1186_
*1355 _1187_
*1356 _1188_
*1357 input15
*1358 input14
*1359 _1191_
*1360 _1192_
*1361 _1193_
*1362 _1194_
*1363 _1195_
*1364 _1196_
*1365 _1197_
*1366 _1198_
*1367 _1199_
*1368 _1200_
*1369 _1201_
*1370 _1202_
*1371 _1203_
*1372 _1204_
*1373 _1205_
*1374 _1206_
*1375 _1207_
*1376 _1208_
*1377 _1209_
*1378 _1210_
*1379 _1211_
*1380 _1212_
*1381 _1213_
*1382 _1214_
*1383 _1215_
*1384 input13
*1385 _1217_
*1386 _1218_
*1387 _1219_
*1388 _1220_
*1389 _1221_
*1390 _1222_
*1391 _1223_
*1392 _1224_
*1393 _1225_
*1394 _1226_
*1395 _1227_
*1396 _1228_
*1397 _1229_
*1398 _1230_
*1399 _1231_
*1400 _1232_
*1401 _1233_
*1402 _1234_
*1403 _1235_
*1404 _1236_
*1405 _1237_
*1406 _1238_
*1407 _1239_
*1408 _1240_
*1409 _1241_
*1410 _1242_
*1411 _1243_
*1412 _1244_
*1413 _1245_
*1414 _1246_
*1415 input12
*1416 input11
*1417 _1249_
*1418 _1250_
*1419 _1251_
*1420 _1252_
*1421 _1253_
*1422 _1254_
*1423 _1255_
*1424 _1256_
*1425 _1257_
*1426 _1258_
*1427 _1259_
*1428 _1260_
*1429 _1261_
*1430 _1262_
*1431 _1263_
*1432 _1264_
*1433 _1265_
*1434 _1266_
*1435 _1267_
*1436 _1268_
*1437 _1269_
*1438 _1270_
*1439 _1271_
*1440 _1272_
*1441 _1273_
*1442 _1274_
*1443 _1275_
*1444 _1276_
*1445 _1277_
*1446 _1278_
*1447 _1279_
*1448 _1280_
*1449 _1281_
*1450 input10
*1451 _1283_
*1452 _1284_
*1453 _1285_
*1454 _1286_
*1455 _1287_
*1456 input9
*1457 input8
*1458 input7
*1459 _1291_
*1460 _1292_
*1461 _1293_
*1462 input6
*1463 _1295_
*1464 _1296_
*1465 _1297_
*1466 _1298_
*1467 _1299_
*1468 _1300_
*1469 _1301_
*1470 _1302_
*1471 _1303_
*1472 _1304_
*1473 _1305_
*1474 _1306_
*1475 _1307_
*1476 _1308_
*1477 _1309_
*1478 _1310_
*1479 _1311_
*1480 _1312_
*1481 _1313_
*1482 _1314_
*1483 _1315_
*1484 _1316_
*1485 _1317_
*1486 _1318_
*1487 _1319_
*1488 _1320_
*1489 _1321_
*1490 _1322_
*1491 _1323_
*1492 _1324_
*1493 _1325_
*1494 input5
*1495 _1327_
*1496 _1328_
*1497 _1329_
*1498 _1330_
*1499 _1331_
*1500 _1332_
*1501 _1333_
*1502 input4
*1503 _1335_
*1504 _1336_
*1505 _1337_
*1506 _1338_
*1507 _1339_
*1508 _1340_
*1509 _1341_
*1510 _1342_
*1511 _1343_
*1512 _1344_
*1513 _1345_
*1514 _1346_
*1515 _1347_
*1516 _1348_
*1517 _1349_
*1518 _1350_
*1519 _1351_
*1520 _1352_
*1521 _1353_
*1522 _1354_
*1523 _1355_
*1524 _1356_
*1525 _1357_
*1526 _1358_
*1527 _1359_
*1528 _1360_
*1529 _1361_
*1530 _1362_
*1531 _1363_
*1532 _1364_
*1533 _1365_
*1534 _1366_
*1535 _1367_
*1536 input3
*1537 _1369_
*1538 _1370_
*1539 _1371_
*1540 input2
*1541 _1373_
*1542 input1
*1543 _1375_
*1544 _1376_
*1545 _1377_
*1546 _1378_
*1547 _1379_
*1548 _1380_
*1549 _1381_
*1550 _1382_
*1551 _1383_
*1552 _1384_
*1553 _1385_
*1554 _1386_
*1555 _1387_
*1556 _1388_
*1557 _1389_
*1558 _1390_
*1559 _1391_
*1560 _1392_
*1561 _1393_
*1562 _1394_
*1563 _1395_
*1564 _1396_
*1565 _1397_
*1566 _1398_
*1567 _1399_
*1568 _1400_
*1569 _1401_
*1570 _1402_
*1571 _1403_
*1572 _1404_
*1573 _1405_
*1574 _1406_
*1575 _1407_
*1576 _1408_
*1577 _1409_
*1578 _1410_
*1579 _1411_
*1580 _1412_
*1581 _1413_
*1582 _1414_
*1583 _1415_
*1584 _1416_
*1585 _1417_
*1586 _1418_
*1587 _1419_
*1588 _1420_
*1589 _1421_
*1590 _1422_
*1591 _1423_
*1592 _1424_
*1593 _1425_
*1594 _1426_
*1595 _1427_
*1596 _1428_
*1597 _1429_
*1598 _1430_
*1599 _1431_
*1600 _1432_
*1601 _1433_
*1602 _1434_
*1603 _1435_
*1604 _1436_
*1605 _1437_
*1606 _1438_
*1607 _1439_
*1608 _1440_
*1609 _1441_
*1610 _1442_
*1611 _1443_
*1612 _1444_
*1613 _1445_
*1614 _1446_
*1615 _1447_
*1616 _1448_
*1617 _1449_
*1618 _1450_
*1619 _1451_
*1620 _1452_
*1621 _1453_
*1622 _1454_
*1623 _1455_
*1624 _1456_
*1625 _1457_
*1626 _1458_
*1627 _1459_
*1628 _1460_
*1629 _1461_
*1630 _1462_
*1631 _1463_
*1632 _1464_
*1633 _1465_
*1634 _1466_
*1635 _1467_
*1636 _1468_
*1637 _1469_
*1638 _1470_
*1639 _1471_
*1640 _1472_
*1641 _1473_
*1642 _1474_
*1643 _1475_
*1644 _1476_
*1645 _1477_
*1646 _1478_
*1647 _1479_
*1648 _1480_
*1649 _1481_
*1650 _1482_
*1651 _1483_
*1652 _1484_
*1653 _1485_
*1654 _1486_
*1655 _1487_
*1656 _1488_
*1657 _1489_
*1658 _1490_
*1659 _1491_
*1660 _1492_
*1661 _1493_
*1662 _1494_
*1663 _1495_
*1664 _1496_
*1665 _1497_
*1666 _1498_
*1667 _1499_
*1668 _1500_
*1669 _1501_
*1670 _1502_
*1671 _1503_
*1672 _1504_
*1673 _1505_
*1674 _1506_
*1675 _1507_
*1676 _1508_
*1677 _1509_
*1678 _1510_
*1679 _1511_
*1680 _1512_
*1681 _1513_
*1682 _1514_
*1683 _1515_
*1684 _1516_
*1685 _1517_
*1686 _1518_
*1687 _1519_
*1688 _1520_
*1689 _1521_
*1690 _1522_
*1691 _1523_
*1692 _1524_
*1693 _1525_
*1694 _1526_
*1695 _1527_
*1696 _1528_
*1697 _1529_
*1698 _1530_
*1699 _1531_
*1700 _1532_
*1701 _1533_
*1702 _1534_
*1703 _1535_
*1704 _1536_
*1705 _1537_
*1706 _1538_
*1707 _1539_
*1708 _1540_
*1709 _1541_
*1710 _1542_
*1711 _1543_
*1712 _1544_
*1713 _1545_
*1714 _1546_
*1715 _1547_
*1716 _1548_
*1717 _1549_
*1718 _1550_
*1719 _1551_
*1720 _1552_
*1721 _1553_
*1722 _1554_
*1723 _1555_
*1724 _1556_
*1725 _1557_
*1726 _1558_
*1727 _1559_
*1728 _1560_
*1729 _1561_
*1730 _1562_
*1731 _1563_
*1732 _1564_
*1733 _1565_
*1734 _1566_
*1735 _1567_
*1736 _1568_
*1737 _1569_
*1738 _1570_
*1739 _1571_
*1740 _1572_
*1741 _1573_
*1742 _1574_
*1743 _1575_
*1744 _1576_
*1745 _1577_
*1746 _1578_
*1747 _1579_
*1748 _1580_
*1749 _1581_
*1750 _1582_
*1751 _1583_
*1752 _1584_
*1753 _1585_
*1754 _1586_
*1755 _1587_
*1756 _1588_
*1757 _1589_
*1758 _1590_
*1759 _1591_
*1760 _1592_
*1761 _1593_
*1762 _1594_
*1763 _1595_
*1764 _1596_
*1765 _1597_
*1766 _1598_
*1767 _1599_
*1768 _1600_
*1769 _1601_
*1770 _1602_
*1771 _1603_
*1772 _1604_
*1773 _1605_
*1774 _1606_
*1775 _1607_
*1776 _1608_
*1777 _1609_
*1778 _1610_
*1779 _1611_
*1780 _1612_
*1781 _1613_
*1782 _1614_
*1783 _1615_
*1784 _1616_
*1785 _1617_
*1786 _1618_
*1787 _1619_
*1788 _1620_
*1789 _1621_
*1790 _1622_
*1791 _1623_
*1792 _1624_
*1793 _1625_
*1794 _1626_
*1795 _1627_
*1796 _1628_
*1797 _1629_
*1798 _1630_
*1799 _1631_
*1800 _1632_
*1801 _1633_
*1802 _1634_
*1803 _1635_
*1804 _1636_
*1805 _1637_
*1806 _1638_
*1807 _1639_
*1808 _1640_
*1809 _1641_
*1810 _1642_
*1811 _1643_
*1812 _1644_
*1813 _1645_
*1814 _1646_
*1815 _1647_
*1816 _1648_
*1817 _1649_
*1818 _1650_
*1819 _1651_
*1820 _1652_
*1821 _1653_
*1822 _1654_
*1823 _1655_
*1824 _1656_
*1825 _1657_
*1826 _1658_
*1827 _1659_
*1828 _1660_
*1829 _1661_
*1830 _1662_
*1831 _1663_
*1832 _1664_
*1833 _1665_
*1834 _1666_
*1835 _1667_
*1836 _1668_
*1837 _1669_
*1838 _1670_
*1839 _1671_
*1840 _1672_
*1841 _1673_
*1842 _1674_
*1843 _1675_
*1844 _1676_
*1845 _1677_
*1846 _1678_
*1847 _1679_
*1848 _1680_
*1849 _1681_
*1850 _1682_
*1851 _1683_
*1852 _1684_
*1853 _1685_
*1854 _1686_
*1855 _1687_
*1856 _1688_
*1857 _1689_
*1858 _1690_
*1859 _1691_
*1860 _1692_
*1861 _1693_
*1862 _1694_
*1863 _1695_
*1864 _1696_
*1865 _1697_
*1866 _1698_
*1867 _1699_
*1868 _1700_
*1869 _1701_
*1870 _1702_
*1871 _1703_
*1872 _1704_
*1873 _1705_
*1874 _1706_
*1875 _1707_
*1876 _1708_
*1877 _1709_
*1878 _1710_
*1879 _1711_
*1880 _1712_
*1881 _1713_
*1882 _1714_
*1883 _1715_
*1884 _1716_
*1885 _1717_
*1886 _1718_
*1887 _1719_
*1888 _1720_
*1889 _1721_
*1890 _1722_
*1891 _1723_
*1892 _1724_
*1893 _1725_
*1894 _1726_
*1895 _1727_
*1896 _1728_
*1897 _1729_
*1898 _1730_
*1899 _1731_
*1900 _1732_
*1901 _1733_
*1902 _1734_
*1903 _1735_
*1904 _1736_
*1905 _1737_
*1906 _1738_
*1907 _1739_
*1908 _1740_
*1909 _1741_
*1910 _1742_
*1911 _1743_
*1912 _1744_
*1913 _1745_
*1914 _1746_
*1915 _1747_
*1916 _1748_
*1917 _1749_
*1918 _1750_
*1919 _1751_
*1920 _1752_
*1921 _1753_
*1922 _1754_
*1923 _1755_
*1924 _1756_
*1925 _1757_
*1926 _1758_
*1927 _1759_
*1928 _1760_
*1929 _1761_
*1930 _1762_
*1931 _1763_
*1932 _1764_
*1933 _1765_
*1934 _1766_
*1935 _1767_
*1936 _1768_
*1937 _1769_
*1938 _1770_
*1939 _1771_
*1940 _1772_
*1941 _1773_
*1942 _1774_
*1943 _1775_
*1944 _1776_
*1945 _1777_
*1946 _1778_
*1947 TAP_TAPCELL_ROW_0_0
*1948 TAP_TAPCELL_ROW_0_1
*1949 TAP_TAPCELL_ROW_0_2
*1950 TAP_TAPCELL_ROW_0_3
*1951 TAP_TAPCELL_ROW_0_4
*1952 TAP_TAPCELL_ROW_0_5
*1953 TAP_TAPCELL_ROW_0_6
*1954 TAP_TAPCELL_ROW_0_7
*1955 TAP_TAPCELL_ROW_0_8
*1956 TAP_TAPCELL_ROW_0_9
*1957 TAP_TAPCELL_ROW_0_10
*1958 TAP_TAPCELL_ROW_0_11
*1959 TAP_TAPCELL_ROW_0_12
*1960 TAP_TAPCELL_ROW_0_13
*1961 TAP_TAPCELL_ROW_0_14
*1962 TAP_TAPCELL_ROW_0_15
*1963 TAP_TAPCELL_ROW_0_16
*1964 TAP_TAPCELL_ROW_0_17
*1965 TAP_TAPCELL_ROW_0_18
*1966 TAP_TAPCELL_ROW_0_19
*1967 TAP_TAPCELL_ROW_1_20
*1968 TAP_TAPCELL_ROW_1_21
*1969 TAP_TAPCELL_ROW_1_22
*1970 TAP_TAPCELL_ROW_1_23
*1971 TAP_TAPCELL_ROW_1_24
*1972 TAP_TAPCELL_ROW_1_25
*1973 TAP_TAPCELL_ROW_1_26
*1974 TAP_TAPCELL_ROW_1_27
*1975 TAP_TAPCELL_ROW_1_28
*1976 TAP_TAPCELL_ROW_1_29
*1977 TAP_TAPCELL_ROW_2_30
*1978 TAP_TAPCELL_ROW_2_31
*1979 TAP_TAPCELL_ROW_2_32
*1980 TAP_TAPCELL_ROW_2_33
*1981 TAP_TAPCELL_ROW_2_34
*1982 TAP_TAPCELL_ROW_2_35
*1983 TAP_TAPCELL_ROW_2_36
*1984 TAP_TAPCELL_ROW_2_37
*1985 TAP_TAPCELL_ROW_2_38
*1986 TAP_TAPCELL_ROW_2_39
*1987 TAP_TAPCELL_ROW_3_40
*1988 TAP_TAPCELL_ROW_3_41
*1989 TAP_TAPCELL_ROW_3_42
*1990 TAP_TAPCELL_ROW_3_43
*1991 TAP_TAPCELL_ROW_3_44
*1992 TAP_TAPCELL_ROW_3_45
*1993 TAP_TAPCELL_ROW_3_46
*1994 TAP_TAPCELL_ROW_3_47
*1995 TAP_TAPCELL_ROW_3_48
*1996 TAP_TAPCELL_ROW_3_49
*1997 TAP_TAPCELL_ROW_4_50
*1998 TAP_TAPCELL_ROW_4_51
*1999 TAP_TAPCELL_ROW_4_52
*2000 TAP_TAPCELL_ROW_4_53
*2001 TAP_TAPCELL_ROW_4_54
*2002 TAP_TAPCELL_ROW_4_55
*2003 TAP_TAPCELL_ROW_4_56
*2004 TAP_TAPCELL_ROW_4_57
*2005 TAP_TAPCELL_ROW_4_58
*2006 TAP_TAPCELL_ROW_4_59
*2007 TAP_TAPCELL_ROW_5_60
*2008 TAP_TAPCELL_ROW_5_61
*2009 TAP_TAPCELL_ROW_5_62
*2010 TAP_TAPCELL_ROW_5_63
*2011 TAP_TAPCELL_ROW_5_64
*2012 TAP_TAPCELL_ROW_5_65
*2013 TAP_TAPCELL_ROW_5_66
*2014 TAP_TAPCELL_ROW_5_67
*2015 TAP_TAPCELL_ROW_5_68
*2016 TAP_TAPCELL_ROW_5_69
*2017 TAP_TAPCELL_ROW_6_70
*2018 TAP_TAPCELL_ROW_6_71
*2019 TAP_TAPCELL_ROW_6_72
*2020 TAP_TAPCELL_ROW_6_73
*2021 TAP_TAPCELL_ROW_6_74
*2022 TAP_TAPCELL_ROW_6_75
*2023 TAP_TAPCELL_ROW_6_76
*2024 TAP_TAPCELL_ROW_6_77
*2025 TAP_TAPCELL_ROW_6_78
*2026 TAP_TAPCELL_ROW_6_79
*2027 TAP_TAPCELL_ROW_7_80
*2028 TAP_TAPCELL_ROW_7_81
*2029 TAP_TAPCELL_ROW_7_82
*2030 TAP_TAPCELL_ROW_7_83
*2031 TAP_TAPCELL_ROW_7_84
*2032 TAP_TAPCELL_ROW_7_85
*2033 TAP_TAPCELL_ROW_7_86
*2034 TAP_TAPCELL_ROW_7_87
*2035 TAP_TAPCELL_ROW_7_88
*2036 TAP_TAPCELL_ROW_7_89
*2037 TAP_TAPCELL_ROW_8_90
*2038 TAP_TAPCELL_ROW_8_91
*2039 TAP_TAPCELL_ROW_8_92
*2040 TAP_TAPCELL_ROW_8_93
*2041 TAP_TAPCELL_ROW_8_94
*2042 TAP_TAPCELL_ROW_8_95
*2043 TAP_TAPCELL_ROW_8_96
*2044 TAP_TAPCELL_ROW_8_97
*2045 TAP_TAPCELL_ROW_8_98
*2046 TAP_TAPCELL_ROW_8_99
*2047 TAP_TAPCELL_ROW_9_100
*2048 TAP_TAPCELL_ROW_9_101
*2049 TAP_TAPCELL_ROW_9_102
*2050 TAP_TAPCELL_ROW_9_103
*2051 TAP_TAPCELL_ROW_9_104
*2052 TAP_TAPCELL_ROW_9_105
*2053 TAP_TAPCELL_ROW_9_106
*2054 TAP_TAPCELL_ROW_9_107
*2055 TAP_TAPCELL_ROW_9_108
*2056 TAP_TAPCELL_ROW_9_109
*2057 TAP_TAPCELL_ROW_10_110
*2058 TAP_TAPCELL_ROW_10_111
*2059 TAP_TAPCELL_ROW_10_112
*2060 TAP_TAPCELL_ROW_10_113
*2061 TAP_TAPCELL_ROW_10_114
*2062 TAP_TAPCELL_ROW_10_115
*2063 TAP_TAPCELL_ROW_10_116
*2064 TAP_TAPCELL_ROW_10_117
*2065 TAP_TAPCELL_ROW_10_118
*2066 TAP_TAPCELL_ROW_10_119
*2067 TAP_TAPCELL_ROW_11_120
*2068 TAP_TAPCELL_ROW_11_121
*2069 TAP_TAPCELL_ROW_11_122
*2070 TAP_TAPCELL_ROW_11_123
*2071 TAP_TAPCELL_ROW_11_124
*2072 TAP_TAPCELL_ROW_11_125
*2073 TAP_TAPCELL_ROW_11_126
*2074 TAP_TAPCELL_ROW_11_127
*2075 TAP_TAPCELL_ROW_11_128
*2076 TAP_TAPCELL_ROW_11_129
*2077 TAP_TAPCELL_ROW_12_130
*2078 TAP_TAPCELL_ROW_12_131
*2079 TAP_TAPCELL_ROW_12_132
*2080 TAP_TAPCELL_ROW_12_133
*2081 TAP_TAPCELL_ROW_12_134
*2082 TAP_TAPCELL_ROW_12_135
*2083 TAP_TAPCELL_ROW_12_136
*2084 TAP_TAPCELL_ROW_12_137
*2085 TAP_TAPCELL_ROW_12_138
*2086 TAP_TAPCELL_ROW_12_139
*2087 TAP_TAPCELL_ROW_13_140
*2088 TAP_TAPCELL_ROW_13_141
*2089 TAP_TAPCELL_ROW_13_142
*2090 TAP_TAPCELL_ROW_13_143
*2091 TAP_TAPCELL_ROW_13_144
*2092 TAP_TAPCELL_ROW_13_145
*2093 TAP_TAPCELL_ROW_13_146
*2094 TAP_TAPCELL_ROW_13_147
*2095 TAP_TAPCELL_ROW_13_148
*2096 TAP_TAPCELL_ROW_13_149
*2097 TAP_TAPCELL_ROW_14_150
*2098 TAP_TAPCELL_ROW_14_151
*2099 TAP_TAPCELL_ROW_14_152
*2100 TAP_TAPCELL_ROW_14_153
*2101 TAP_TAPCELL_ROW_14_154
*2102 TAP_TAPCELL_ROW_14_155
*2103 TAP_TAPCELL_ROW_14_156
*2104 TAP_TAPCELL_ROW_14_157
*2105 TAP_TAPCELL_ROW_14_158
*2106 TAP_TAPCELL_ROW_14_159
*2107 TAP_TAPCELL_ROW_15_160
*2108 TAP_TAPCELL_ROW_15_161
*2109 TAP_TAPCELL_ROW_15_162
*2110 TAP_TAPCELL_ROW_15_163
*2111 TAP_TAPCELL_ROW_15_164
*2112 TAP_TAPCELL_ROW_15_165
*2113 TAP_TAPCELL_ROW_15_166
*2114 TAP_TAPCELL_ROW_15_167
*2115 TAP_TAPCELL_ROW_15_168
*2116 TAP_TAPCELL_ROW_15_169
*2117 TAP_TAPCELL_ROW_16_170
*2118 TAP_TAPCELL_ROW_16_171
*2119 TAP_TAPCELL_ROW_16_172
*2120 TAP_TAPCELL_ROW_16_173
*2121 TAP_TAPCELL_ROW_16_174
*2122 TAP_TAPCELL_ROW_16_175
*2123 TAP_TAPCELL_ROW_16_176
*2124 TAP_TAPCELL_ROW_16_177
*2125 TAP_TAPCELL_ROW_16_178
*2126 TAP_TAPCELL_ROW_16_179
*2127 TAP_TAPCELL_ROW_17_180
*2128 TAP_TAPCELL_ROW_17_181
*2129 TAP_TAPCELL_ROW_17_182
*2130 TAP_TAPCELL_ROW_17_183
*2131 TAP_TAPCELL_ROW_17_184
*2132 TAP_TAPCELL_ROW_17_185
*2133 TAP_TAPCELL_ROW_17_186
*2134 TAP_TAPCELL_ROW_17_187
*2135 TAP_TAPCELL_ROW_17_188